<?xml version="1.0" encoding="UTF-8"?>

<configuration xmlns:xsi="http://www.w3.org/2001/XMLSchema-instance" xsi:noNamespaceSchemaLocation="http://sumo.dlr.de/xsd/sumoConfiguration.xsd">
    <input>
        <net-file value="acosta_buslanes.net.xml"/>
        <route-files value="acosta.rou.xml,acosta_busses.rou.xml"/>
        <additional-files value="acosta_vtypes.add.xml,acosta_bus_stops.add.xml,acosta_tls.add.xml"/>
    </input>

    <time>
        <begin value="0"/>
        <end value="600"/>
    </time>
	
    <report>
        <no-step-log value="true"/>
    </report>
</configuration>
